[General]
ini-warnings = no
random-seed = 1
sim-time-limit = 420s

[Cmdenv]
express-mode = true
performance-display=no
status-frequency=1000000

[Tkenv]
default-run = 1

[OutVectors]
*.enabled = no

[Parameters]
*.writeScalars = true

##

*.mac.address = "auto"
*.mac[*].address = "auto"
*.mac.maxQueueSize = 50
*.mac[*].maxQueueSize = 50
*.mac.promiscuous = false
*.mac[*].promiscuous = false
*.mac.txrate = 0   # autoconfig
*.mac[*].txrate = 0   # autoconfig
*.mac.duplexEnabled = true
*.mac[*].duplexEnabled = true

*.relayUnit.addressTableSize = 100
*.relayUnit.agingTime = 120s
*.relayUnit.bufferSize = 1048576  # 1Mb
*.relayUnit.highWatermark = 524288  # 512K
*.relayUnit.pauseUnits = 300  # pause for 300*512 bit (19200 byte) time
*.relayUnit.addressTableFile = ""
*.switch*.relayUnitType = "MACRelayUnitNP"
*.cli.destAddress = ""  # destStation parameter is used instead


[Run 1]
network=largeLAN

largeLAN.n=6   # number of hosts on the switch
largeLAN.h=8   # number of hosts on the hub
largeLAN.b=16  # number of hosts on the bus

largeLAN.*.cli.reqLength = intuniform(50,1400)
largeLAN.*.cli.respLength = truncnormal(5000,5000)
largeLAN.host[*].cli.waitTime = exponential(0.1) # avg 10 requests/sec for hosts on switch
largeLAN.*.cli.waitTime = exponential(0.15)  # avg 6.67 requests/sec for others 

largeLAN.host[0].cli.destStation = "host[1]"
largeLAN.host[1].cli.destStation = "host[2]"
largeLAN.host[2].cli.destStation = "host[3]"
largeLAN.host[3].cli.destStation = "host[4]"
largeLAN.host[4].cli.destStation = "host[5]"
largeLAN.host[5].cli.destStation = "host[0]"

largeLAN.hhost[0].cli.destStation = "host[0]"
largeLAN.hhost[1].cli.destStation = "host[1]"
largeLAN.hhost[2].cli.destStation = "host[2]"

largeLAN.bhost[0].cli.destStation = "host[0]"
largeLAN.bhost[1].cli.destStation = "host[1]"
largeLAN.bhost[2].cli.destStation = "host[2]"

largeLAN.hhost[*].cli.destStation = "host[3]"
largeLAN.bhost[*].cli.destStation = "host[4]"

largeLAN.switch.relayUnit.numCPUs = 2
largeLAN.switch.relayUnit.processingTime = 10us

[Run 2]
network=largeLAN

largeLAN.n=8   # number of hosts on the switch
largeLAN.h=12   # number of hosts on the hub
largeLAN.b=8  # number of hosts on the bus

largeLAN.*.cli.reqLength = intuniform(50,1400)
largeLAN.*.cli.respLength = truncnormal(5000,7000)
largeLAN.host[*].cli.waitTime = exponential(0.1) # avg 10 requests/sec for hosts on switch
largeLAN.*.cli.waitTime = exponential(0.2) # avg 5 requests/sec for others

largeLAN.hhost[0].cli.destStation = "host[0]"
largeLAN.hhost[1].cli.destStation = "host[1]"
largeLAN.hhost[2].cli.destStation = "host[2]"
largeLAN.hhost[*].cli.destStation = "host[3]"

largeLAN.host[0].cli.destStation = "bhost[4]"
largeLAN.host[1].cli.destStation = "bhost[5]"
largeLAN.host[2].cli.destStation = "bhost[6]"
largeLAN.host[3].cli.destStation  = "bhost[7]"

largeLAN.host[4].cli.destStation  = "hhost[11]"
largeLAN.host[*].cli.destStation  = "hhost[0]"

largeLAN.bhost[0].cli.destStation = "host[4]"
largeLAN.bhost[1].cli.destStation = "host[5]"
largeLAN.bhost[2].cli.destStation = "host[6]"
largeLAN.bhost[*].cli.destStation = "host[7]"

largeLAN.switch.relayUnit.numCPUs = 2
largeLAN.switch.relayUnit.processingTime = 10us

