#
#

[General]
ini-warnings = no
random-seed = 1
sim-time-limit = 180s

[Cmdenv]
express-mode = true

[Tkenv]
#default-run = 1

[OutVectors]
*.enabled = no

[Run 1]
network=twoHosts
*.hostA.cli.destStation = "hostB"
*.hostB.cli.destStation = "hostA"
*.cli.waitTime = exponential(0.01)

[Parameters]
*.writeScalars = true
*.mac.address = "auto"
*.mac[*].address = "auto"
*.mac.maxQueueSize = 50
*.mac[*].maxQueueSize = 50
*.mac.promiscuous = false
*.mac[*].promiscuous = false
*.mac.txrate = 0   # autoconfig
*.mac[*].txrate = 0   # autoconfig
*.mac.duplexEnabled = true
*.mac[*].duplexEnabled = true

*.switch*.relayUnitType = "MACRelayUnitNP"
*.relayUnit.addressTableSize = 100
*.relayUnit.agingTime = 120s
*.relayUnit.bufferSize = 1048576  # 1Mb
*.relayUnit.highWatermark = 524288  # 512K
*.relayUnit.pauseUnits = 300  # pause for 300*512 bit (19200 byte) time
*.relayUnit.addressTableFile = ""
*.relayUnit.numCPUs = 2
*.relayUnit.processingTime = 2us

*.cli.destAddress = ""  # destStation parameter is used instead
*.cli.reqLength = intuniform(50,1400)
*.cli.respLength = truncnormal(3000,3000)

